** Output from COS2ABQ translator version 2010  
*HEADING
                                                                         
** PARTS
**
*PART,NAME=PART1
*NODE, NSET=NSET1
1,0.1801295280,0.3182643354,0.1837500036
2,0.1801295280,0.2850887775,0.2319065332
3,0.1801295280,0.2446946651,0.2741911113
4,0.1801295280,0.1981047988,0.3095330894
5,0.1801295280,0.1464988589,0.3370375931
6,0.1801295280,0.9118350595E-01,0.3560081720
7,0.1801295280,0.3355936706E-01,0.3659645021
8,0.1801295280,-.2491451055E-01,0.3666544855
9,0.1801295280,-.8275754005E-01,0.3580606580
10,0.1801295280,-.1385051310,0.3404006064
11,0.1801295280,-.1907457113,0.3141215146
12,0.1801295280,-.2381565571,0.2798887491
13,0.1801295280,-.2795372009,0.2385690957
14,0.1801710129,-.3140802681,0.1913552731
15,0.1801295280,0.3225115836,0.1761888862
16,0.1801295280,-.3182643354,0.1837500036
17,0.1801295280,-.3433813453,0.1309408545
18,0.1801295280,-.3598037958,0.7481622696E-01
19,0.1801295280,-.3671159148,0.1679723896E-01
20,0.1801295280,-.3651325405,-.4164706543E-01
** ... 48654 like lines cut
*ELEMENT,TYPE=C3D10,ELSET=PART1_EG1
1,5488,5489,3186,5490,14554,28272,28273,14553,14545,28271
2,5491,5492,3182,5493,14530,28295,28296,14529,14526,28294
3,5488,5491,5490,5493,14552,14538,14553,14550,14529,14537
4,3186,2445,1863,5492,32215,35576,35574,28270,32211,35573
5,1863,2445,5494,5492,35576,32210,35572,35573,32211,14525
6,5493,5492,3182,5495,14526,28295,28294,14522,14524,28293
7,5496,5497,1816,5498,14509,35874,35875,14508,14500,35873
8,5499,3299,5496,5500,27445,27446,14507,14488,27444,14506
9,5496,5497,5498,5501,14509,14500,14508,14505,14499,14495
10,5502,1815,5500,5496,35881,35882,14482,14504,35884,14506
11,5496,5502,5497,5501,14504,14498,14509,14505,14480,14499
12,5503,5504,5505,5506,14467,14461,14466,14465,14460,14453
13,5504,5503,5022,4358,14467,16769,16768,21019,21020,21022
14,5405,5404,823,846,14980,42075,42074,41951,41952,42079
15,5503,5506,4358,5504,14465,21018,21020,14467,14460,21019
16,5507,5503,5022,5504,14464,16769,16767,14459,14467,16768
17,5508,5041,5509,4433,16677,16676,14436,20547,20548,20546
18,5508,5041,5510,5511,16677,16675,14435,14434,16674,14426
19,5508,5510,5512,5513,14435,14425,14433,14432,14424,14420
20,5508,5514,236,5512,14431,46473,46477,14433,14419,46475
** ... 27945 like lines cut
*ORIENTATION,NAME=RECT1,DEFINITION=COORDINATES,SYSTEM=RECTANGULAR
1.0,0.0,0.0,0.0,1.0,0.0
0.0,0.0,0.0
*SOLID SECTION,ELSET=PART1_EG1,MATERIAL=MAT1, ORIENT=RECT1
*END PART
** ASSEMBLY
*ASSEMBLY, NAME=ASSEMBLY
*INSTANCE, NAME=PART1-1, PART=PART1
*END INSTANCE
*END ASSEMBLY
*MATERIAL,NAME=MAT1 
*ELASTIC
0.100000E+05,0.450000E+00,
*DENSITY
0.960000E+03,
*END STEP
