** Output from COS2ABQ translator version 2010  
*HEADING
                                                                         
** PARTS
**
*PART,NAME=PART1
*NODE, NSET=NSET1
1,0.1801295280,0.3182643354,0.1837500036
2,0.1801295280,0.2850887775,0.2319065332
3,0.1801295280,0.2446946651,0.2741911113
4,0.1801295280,0.1981047988,0.3095330894
5,0.1801295280,0.1464988589,0.3370375931
6,0.1801295280,0.9118350595E-01,0.3560081720
7,0.1801295280,0.3355936706E-01,0.3659645021
8,0.1801295280,-.2491451055E-01,0.3666544855
9,0.1801295280,-.8275754005E-01,0.3580606580
10,0.1801295280,-.1385051310,0.3404006064
11,0.1801295280,-.1907457113,0.3141215146
12,0.1801295280,-.2381565571,0.2798887491
13,0.1801295280,-.2795372009,0.2385690957
14,0.1801710129,-.3140802681,0.1913552731
15,0.1801295280,0.3225115836,0.1761888862
16,0.1801295280,-.3182643354,0.1837500036
17,0.1801295280,-.3433813453,0.1309408545
18,0.1801295280,-.3598037958,0.7481622696E-01
19,0.1801295280,-.3671159148,0.1679723896E-01
20,0.1801295280,-.3651325405,-.4164706543E-01
** ... 48559 like lines cut
*ELEMENT,TYPE=C3D10,ELSET=PART1_EG1
1,5488,5489,1816,5490,14552,35745,35746,14551,14544,35744
2,5488,5489,5490,5491,14552,14544,14551,14550,14543,14538
3,5492,5488,2548,5493,14549,31686,31685,14528,14548,31684
4,5488,5494,5495,5489,14547,14520,14546,14552,14542,14541
5,5488,5495,1815,5489,14546,35751,35753,14552,14541,35752
6,5496,4303,5497,5498,21261,21260,14507,14506,21259,14501
7,160,5469,5499,5500,47162,14629,47161,47160,14628,14490
8,160,5500,5501,5469,47160,14483,47159,47162,14628,14627
9,5502,5469,161,5501,14626,47151,47149,14474,14627,47150
10,5503,3248,5504,5505,27755,27754,14459,14458,27753,14452
11,3247,3248,5504,5503,27763,27754,27758,27759,27755,14459
12,5506,4982,5507,5508,17028,17027,14441,14440,17026,14434
13,5503,2503,5509,3249,31889,31887,14457,27750,31893,27749
14,5405,5404,823,846,14984,41982,41981,41856,41857,41986
15,1836,5510,5511,5503,35617,14418,35616,35618,14456,14455
16,1275,5512,5513,4310,39210,14406,39209,39213,21235,21234
17,5514,5515,5516,553,14393,14389,14392,43520,43519,43518
18,5514,5515,553,554,14393,43519,43520,43507,43506,43525
19,5514,5517,5050,5375,14391,16628,16629,15106,15105,16630
20,5514,5518,5050,5049,14390,16627,16629,16634,16632,16635
** ... 27874 like lines cut
*ORIENTATION,NAME=RECT1,DEFINITION=COORDINATES,SYSTEM=RECTANGULAR
1.0,0.0,0.0,0.0,1.0,0.0
0.0,0.0,0.0
*SOLID SECTION,ELSET=PART1_EG1,MATERIAL=MAT1, ORIENT=RECT1
*END PART
** ASSEMBLY
*ASSEMBLY, NAME=ASSEMBLY
*INSTANCE, NAME=PART1-1, PART=PART1
*END INSTANCE
*NSET,NSET=BC_NSET1,INSTANCE=PART1-1
1,2,3,4,5,6,7,8,9,10,11,12,13,14,15,16,
17,18,19,20,21,22,23,24,25,26,27,28,29,30,31,32,
33,34,35,36,37,38,39,40,41,42,43,44,45,46,47,48,
49,50,51,52,53,54,55,56,57,58,59,60,61,62,63,64,
65,66,67,68,69,70,71,72,73,74,75,76,77,78,79,80,
81,82,83,84,85,86,87,88,89,90,91,92,93,94,95,96,
97,98,99,100,101,102,103,104,105,106,107,108,109,110,111,112,
113,114,115,116,117,118,119,120,121,122,123,124,125,126,127,128,
129,130,131,132,133,134,135,136,137,138,139,140,141,142,143,144,
145,146,147,148,149,150,151,152,153,154,155,156,157,158,159,160,
161,162,163,164,165,166,167,168,169,170,171,172,173,174,175,176,
177,178,179,180,181,182,183,184,185,186,187,188,189,190,191,192,
193,194,195,196,197,198,199,200,201,202,203,204,205,206,207,208,
209,210,211,212,213,214,215,216,217,218,219,220,221,222,223,224,
225,226,227,228,229,230,231,232,233,234,235,236,237,238,239,240,
241,242,243,244,245,246,247,248,249,250,251,252,253,254,255,256,
257,258,259,260,261,262,263,264,265,266,267,268,269,270,271,272,
273,274,275,276,277,278,279,280,281,282,283,284,285,286,287,288,
289,290,291,292,293,294,295,296,297,298,299,300,301,302,303,304,
305,306,307,308,309,310,311,312,313,314,315,316,317,318,319,320,
** ... 186 like lines cut
*NSET,NSET=BC_NSET2,INSTANCE=PART1-1
634,635,636,637,638,639,640,641,642,643,644,645,646,647,664,665,
666,667,668,669,670,671,672,673,674,675,676,677,693,743,744,761,
762,763,764,765,766,767,768,769,770,771,772,773,774,790,791,792,
793,794,795,796,797,798,799,800,801,802,1388,1389,1390,1391,1392,1393,
1394,1395,1396,1397,1398,1399,1400,1401,1402,1403,1404,1418,5278,5279,5280,5281,
5282,5283,5284,5285,5286,5287,5288,5289,5290,5303,15750,15754,15755,15756,15757,15758,
15759,15760,15761,15762,15763,15764,15765,38476,38491,38494,38495,38496,38497,38498,38499,38500,
38501,38502,38503,38504,38505,38506,42167,42168,42169,42170,42171,42172,42173,42174,42175,42176,
42177,42178,42179,42180,42181,42182,42183,42184,42185,42186,42187,42188,42189,42190,42191,42192,
42193,42194,42195,42196,42197,42198,42199,42200,42201,42202,42203,42204,42206,42300,42301,42304,
42305,42306,42307,42308,42309,42310,42311,42312,42313,42315,42316,42319,42321,42322,42407,42408,
42412,42415,42634,42635,42705,42706,42709,42710,42713,42714,42715,42718,42719,42720,42723,42724,
42725,42728,42729,42730,42733,42734,42735,42738,42739,42740,42743,42744,42745,42748,42749,42750,
42753,42754,42755,42758,42759,42760,42763,42765,42766,42767,42770,42772,42774,42834,42835,42839,
42842,42845,42848,42851,42854,42857,42860,42863,42866,42869,42872,42875,42876,42879,45219,45221,
45222,45228,45233,45234,45240,45241,45247,45248,45255,45256,45261,45262,45266,45267,45271,45272,
45276,45277,45283,45284,45289,45290,45294,45295,45299,45300,45301,45307,45309,45310,45315,45316,
45317,45321,45322,45326,45327,45332,45333,45339,45340,45344,45345,45349,45350,45354,45355,45360,
45361,45368,45369,45375,45376,45382,45383,45389,45390,45396,45398,48397,48399,48400,48405,48406,
48411,48412,48418,48419,48425,48426,48432,48433,48439,48440,48446,48447,48452,48453,48457,48458,
48462,48463,48467,48468,48472,48473,48478,48479,48480,48483,48485,48493,48494,48501,48502,48507,
48508,48514,48515,48521,48522,48528,48529,48535,48536,48542,48543,48548,48549,48553,48554,48558,
48559,48563,48564,48568,48569,48574,48575,48576,
*END ASSEMBLY
*MATERIAL,NAME=MAT1 
*ELASTIC
0.100000E+05,0.450000E+00,
*DENSITY
0.960000E+03,
*STEP,SOLVER=ITERATIVE
LOAD CASE NUMBER 1
*STATIC
*BOUNDARY
ASSEMBLY.BC_NSET1,1,1
ASSEMBLY.BC_NSET1,2,2
ASSEMBLY.BC_NSET1,3,3
ASSEMBLY.BC_NSET2,3,3
*END STEP
