*Heading
** Job name: CubeTet10 Model name: Model-1
** Generated by: Abaqus/CAE 2022
*Preprint, echo=NO, model=NO, history=NO, contact=NO
**
** PARTS
**
*Part, name=Part-1
*Node
      1,          25.,          25.,          50.
      2,          25.,         -25.,          50.
      3,          25.,         -25.,           0.
      4,          25.,          25.,           0.
      5,         -25.,         -25.,          50.
      6,         -25.,         -25.,           0.
      7,         -25.,          25.,           0.
      8,         -25.,          25.,          50.
      9,          25.,          15.,          50.
     10,          25.,           5.,          50.
     11,          25.,          -5.,          50.
     12,          25.,         -15.,          50.
     13,          25.,         -25.,          40.
     14,          25.,         -25.,          30.
     15,          25.,         -25.,          20.
     16,          25.,         -25.,          10.
     17,          25.,         -15.,           0.
     18,          25.,          -5.,           0.
     19,          25.,           5.,           0.
     20,          25.,          15.,           0.
** ... 238 like lines cut
*Element, type=C3D4
   1, 153, 154, 155, 156
   2, 154, 157, 158, 159
   3, 154, 155, 160, 161
   4, 154, 158, 161, 159
   5, 154, 161, 160, 162
   6, 163, 164, 165, 166
   7, 167, 168, 169, 163
   8, 163, 153, 164, 170
   9, 163, 168, 171, 166
  10, 168, 153, 167, 156
  11, 154, 162, 172, 157
  12, 154, 173, 172, 162
  13, 163, 164, 153, 165
  14, 155, 153, 167, 158
  15, 153, 158, 157, 174
  16, 153, 165, 164, 175
  17, 153, 172, 165, 175
  18, 176, 177, 178, 179
  19, 180, 158, 181, 182
  20, 176, 183, 184, 185
** ... 993 like lines cut
*Nset, nset=Set-1, generate
   1,  258,    1
*Elset, elset=Set-1, generate
    1,  1013,     1
** Section: Section-1
*Solid Section, elset=Set-1, material=Material-1
,
*End Part
**  
**
** ASSEMBLY
**
*Assembly, name=Assembly
**  
*Instance, name=Part-1-1, part=Part-1
*End Instance
**  
*End Assembly
** 
** MATERIALS
** 
*Material, name=Material-1
*Elastic
30000., 0.2
** ----------------------------------------------------------------
** 
** STEP: Step-1
** 
*Step, name=Step-1, nlgeom=NO
*Static
1., 1., 1e-05, 1.
** 
** OUTPUT REQUESTS
** 
*Restart, write, frequency=0
** 
** FIELD OUTPUT: F-Output-1
** 
*Output, field, variable=PRESELECT
** 
** HISTORY OUTPUT: H-Output-1
** 
*Output, history, variable=PRESELECT
*End Step
