*Heading
** Job name: Job-1 Model name: Model-1
** Generated by: Abaqus/CAE 2022
*Preprint, echo=NO, model=NO, history=NO, contact=NO
**
** PARTS
**
*Part, name=Part-1
*Node
      1,        525.5,         100.,         200.
      2,        525.5,           0.,         200.
      3,        525.5,           0.,           0.
      4,        525.5,         100.,           0.
      5,           0.,           0.,         200.
      6,           0.,           0.,           0.
      7,           0.,         100.,           0.
      8,           0.,         100.,         200.
      9,        525.5,          80.,         200.
     10,        525.5,          60.,         200.
     11,        525.5,          40.,         200.
     12,        525.5,          20.,         200.
     13,        525.5,           0.,         180.
     14,        525.5,           0.,         160.
     15,        525.5,           0.,         140.
     16,        525.5,           0.,         120.
     17,        525.5,           0.,         100.
     18,        525.5,           0.,          80.
     19,        525.5,           0.,          60.
     20,        525.5,           0.,          40.
** ... 1919 like lines cut
*Element, type=C3D4
   1,  883,  884,  885,  886
   2,  883,  887,  888,  889
   3,  890,  883,  889,  887
   4,  889,  890,  891,  892
   5,  893,  894,  895,  896
   6,  893,  897,  898,  899
   7,  893,  900,  897,  899
   8,  893,  896,  897,  900
   9,  901,  902,  903,  186
  10,  901,  903,  902,  904
  11,  901,  905,  906,  907
  12,  901,  908,  909,  907
  13,  901,  910,  903,  908
  14,  911,  912,  913,  914
  15,  915,  916,  917,  918
  16,  919,  915,  920,  921
  17,  922,  921,  920,  923
  18,  915,  924,  921,  925
  19,  926,   11,  844,  845
  20,  927,  928,  929,  930
** ... 8809 like lines cut
*End Part
**  
**
** ASSEMBLY
**
*Assembly, name=Assembly
**  
*Instance, name=Part-1-1, part=Part-1
*End Instance
**  
*End Assembly
** 
** MATERIALS
** 
*Material, name=FEA
*Density
 2.338e-10,
*Elastic
3900., 0.2
