** Output from COS2ABQ translator version 2010  
*HEADING
                                                                         
** PARTS
**
*PART,NAME=PART1
*NODE, NSET=NSET1
1,-.1104936004,0.5751289129,-.2582403719
2,-.3987055644E-01,0.6298547983,-.6404489279E-01
3,0.7171866600E-03,0.6292254329,-.7346724719E-01
4,0.2380023361E-03,0.6208315492,-.1260571033
5,-.9543947130E-01,0.6156882048,-.1391710490
6,-.9543947130E-01,0.5821447968,-.2440245003
7,-.2094821185,0.5664156675,-.2388503253
8,-.2403514534,0.5334894657,-.2497312725
9,-.2545000613,0.4996226132,-.2643168569
10,-.2546792626,0.4771024883,-.3022801876
11,-.2226235569,0.5062059760,-.3336975574
12,-.1708223075,0.5888531208,-.2129974216
13,-.1708223075,0.5457903743,-.3069670498
14,-.1104936004,0.4203706086,-.4698403478
15,-.3987055644E-01,0.5493515730,-.3146929443
16,0.7171866600E-03,0.5449442267,-.3230447173
17,0.2380023361E-03,0.5158858299,-.3676738441
18,-.9543947130E-01,0.5058531761,-.3775620162
19,-.9543947130E-01,0.4325620532,-.4597070813
20,-.2094821185,0.4202972949,-.4485826492
** ... 21339 like lines cut
*ELEMENT,TYPE=C3D10,ELSET=PART1_EG1
1,3093,3094,268,1516,12825,12826,12827,12828,12829,9749
2,3093,1509,3095,262,12830,12831,12832,12833,12834,12835
3,3093,3094,261,268,12825,12836,12837,12827,12826,12838
4,333,445,3096,1363,9190,12839,12840,9191,4396,12841
5,3096,3097,327,1355,12842,12843,12844,12845,12846,12847
6,3096,3098,326,333,12848,12849,12850,12840,12851,12852
7,3099,1455,481,475,12853,4596,12854,12855,9572,9575
8,3099,3100,481,288,12856,12857,12854,12858,12859,4555
9,481,294,1455,3099,9525,9526,4596,12854,12860,12853
10,3101,3102,185,1694,12861,12862,12863,12864,12865,5114
11,3101,186,3103,3102,12866,12867,12868,12861,12869,12870
12,3101,191,3104,3105,12871,12872,12873,12874,12875,12876
13,3101,184,191,1693,12877,12878,12871,12879,12880,5109
14,3101,829,3018,1693,12881,12406,12882,12879,12883,12884
15,3101,3105,3103,829,12874,12885,12868,12881,12886,12887
16,3106,3107,1331,427,12888,12889,12890,12891,12892,9124
17,3106,3108,433,340,12893,12894,12895,12896,12897,4288
18,3106,3107,346,1331,12888,12898,12899,12890,12889,9079
19,3109,3110,307,1423,12900,12901,12902,12903,12904,9414
20,1401,3109,3111,1430,12905,12906,12907,9462,12908,12909
** ... 11151 like lines cut
*ORIENTATION,NAME=RECT1,DEFINITION=COORDINATES,SYSTEM=RECTANGULAR
1.0,0.0,0.0,0.0,1.0,0.0
0.0,0.0,0.0
*SOLID SECTION,ELSET=PART1_EG1,MATERIAL=MAT1, ORIENT=RECT1
*END PART
** ASSEMBLY
*ASSEMBLY, NAME=ASSEMBLY
*INSTANCE, NAME=PART1-1, PART=PART1
*END INSTANCE
*NSET,NSET=BC_INT,INSTANCE=PART1-1
751,752,753,754,755,756,757,758,759,760,761,762,763,764,765,766,
767,768,769,770,771,772,773,774,775,776,777,778,779,780,781,782,
783,784,785,786,787,788,789,790,791,792,793,794,795,796,797,798,
799,800,801,802,803,804,805,806,807,808,809,810,811,812,813,814,
815,816,817,818,819,820,821,822,823,824,825,826,827,828,829,830,
831,832,833,834,835,836,837,838,839,840,841,842,843,844,845,846,
847,848,849,850,851,852,853,854,855,856,857,858,859,860,861,862,
2106,2107,2108,2109,2110,2111,2112,2113,2114,2115,2116,2117,2118,2119,2120,2121,
2122,2123,2124,2125,2126,2127,2128,2129,2130,2131,2132,2133,2134,2135,2136,2137,
2138,2139,2948,2949,2950,2951,2952,2953,2954,2955,2956,2957,2958,2959,2960,2961,
2962,2963,2964,2965,2966,2967,2968,2969,2970,2971,2972,2973,2974,2975,2976,2977,
2978,2979,2980,2981,2982,2983,2984,2985,2986,2987,2988,2989,2990,2991,2992,2993,
2994,2995,2996,2997,2998,2999,3000,3001,3002,3003,3004,3005,3006,3007,3008,3009,
3010,3011,3012,3013,3014,3015,3016,3017,3018,3019,3020,3021,3022,3023,3024,3025,
3026,3027,3028,3029,3030,3031,3032,3033,3034,3035,3036,3037,3038,3039,3040,3041,
3042,3043,3044,3045,3046,3047,3048,3049,3050,3051,3052,3053,3054,3055,3056,3057,
3058,3059,3060,3061,3062,3063,3064,3065,3066,3067,3068,3069,3070,3071,3072,3073,
3074,3075,3076,3077,3078,3079,3080,3081,3082,3083,3084,3085,3086,3087,3088,3089,
3090,3091,3092,3549,3550,3551,3552,3553,3554,3555,3556,3557,3558,3559,3560,3561,
3562,3563,3564,3565,3566,3567,3568,3569,3570,3571,3572,3573,3574,3575,3576,3577,
** ... 51 like lines cut
*NSET,NSET=BC_CONN,INSTANCE=PART1-1
2140,2141,2142,2143,2144,2145,2146,2147,2148,2149,2150,2151,2152,2153,2154,2155,
2156,2157,2158,2159,2160,2161,2162,2163,2164,2165,2166,2167,2168,2169,2170,2171,
2172,2173,2174,2175,2176,2177,2178,6078,6079,6080,6081,6082,6083,6084,6085,6086,
6087,6088,6089,6090,6091,6092,6093,6094,6095,6096,6097,6098,6099,6100,6101,6102,
6103,6104,6105,6106,6107,6108,6109,6110,6111,6112,6113,6114,6115,6116,12059,12060,
12061,12062,12063,12064,12065,12066,12067,12068,12069,12070,12071,12072,12073,12074,12075,12076,
12077,12078,12079,12080,12081,12082,12083,12084,12085,12086,12087,12088,12089,12090,12091,12092,
12093,12094,12095,12096,12097,12098,12099,12100,12101,12102,12103,12104,12105,12106,12107,12108,
12109,12110,12111,12112,12113,12114,12115,12116,12117,12118,12119,12120,12121,12122,12123,12124,
12125,12126,12127,12128,12129,12130,12131,
*END ASSEMBLY
*MATERIAL,NAME=MAT1
*ELASTIC
0.610000E+07,0.490000E+00,
*PLASTIC
0.92374E+07,0.0000,0.0000
*EXPANSION
0.670000E-03,
*DENSITY
0.100000E+04,
*CONDUCTIVITY
0.140000E+00,
*STEP,SOLVER=ITERATIVE
LOAD CASE NUMBER 1
*STATIC
*BOUNDARY
ASSEMBLY.BC_INT,1,1
ASSEMBLY.BC_INT,2,2
ASSEMBLY.BC_INT,3,3
ASSEMBLY.BC_CONN,3,3
*END STEP
