*Heading
** Job name: prism_100mmx500mm Model name: Model prism_100mmx500mm-edgeEle
*Preprint, echo=NO, model=NO, history=NO, contact=NO
**
** PARTS
**
*Part, name=Part-1
*USER ELEMENT,NODES=2,TYPE=U1,PROPERTIES=8,COORDINATES=3,VARIABLES=4
*NODE, NSET=NSET1
1,-5.000000000000001,9.359280903528001,460.73473644221
2,-5.000000000000001,10.462869644167,476.73243096609
3,-5.000000000000001,26.059900281767664,122.27629855232334
4,-5.000000000000001,46.72807174988867,141.94993273367
5,-5.000000000000001,47.80773647583366,35.076034425621664
6,-5.0,4.094548655807,30.244495234909333
7,-5.0,4.324564719924667,469.537402557
8,-5.0,4.576571841523667,431.21184681316663
9,-5.0,4.616864896355,89.97926991818167
10,-5.0,4.805658526061333,109.39914330177334
11,-5.0,4.976749756639999,151.11072059677
12,-5.0,5.029578212644333,70.019715480339
13,-5.0,5.034716183603334,451.19733388520996
14,-5.0,5.042747595679,128.32161331180666
15,-5.0,5.216301270278667,408.35832100399665
16,-5.0,5.569444444444334,12.236111111111
17,-5.0,5.653754690213,49.372693101114
18,-5.0,5.917299420482,389.7012961242067
19,-5.0,5.964039000825667,170.04808602386
20,-5.0,6.0321549016019995,229.94136634964002
** ... 8506 like lines cut
*ELEMENT, TYPE=U1, ELSET=UEL
1,1278,907
2,795,1278
3,1278,1749
4,1260,872
5,800,1260
6,1260,1739
7,1380,965
8,1299,783
9,965,1299
10,1703,1751
11,1380,1703
12,1703,1299
13,1444,1389
14,932,1444
15,1389,789
16,7687,7315
17,6854,7315
18,7315,7747
19,7843,7410
20,7114,6847
** ... 13512 like lines cut
*UEL PROPERTY, ELSET=UEL
1.000E-9,8.9E-10,2.15E+3,1.97E-14,6.1728E+4,0.5,0.0,17.28E+6
*End Part
**
**
** ASSEMBLY
**
*Assembly, name=Assembly
**
*Instance, name=Part-1-1, part=Part-1
**Section: Section-1
*Solid Section,elset=VISUALIZATION,material=Material-1
*End Instance
**
*NSET, NSET=AllNodes, instance=Part-1-1, generate
1, 8526, 1
*NSET, NSET=LeftNodes, instance=Part-1-1
914,915,920,921,1021,1022,1034,1035,1201,1202,1483,1484,1489,1490,1590
1591,1597,1598,1671,1672,1683,1684,2119,2120,2131,2132,2217,2218,2223,2224
2338,2339,2343,2344,2602,2603,2607,2608,2903,2904,3001,3002,3017,3018,3028
3029,3212,3213,3340,3341,3431,3432,3546,3547,3666,3667,3749,3750,3753,3754
3936,3937,4277,4278,4288,4289,4362,4363,4411,4412,4498,4499,4512,4513,4824
4825,4975,4976,4990,4991,5057,5058,5205,5206,5289,5290,5336,5337,5509,5510
5682,5683,5714,5715,5728,5729,5857,5858,6105,6106,6111,6112,6320,6321,6324
6325,6417,6418,6421,6422,6480,6481,6490,6491,6878,6879,6889,6890,6984,6985
6988,6989,7097,7098,7108,7109,7358,7359,7527,7528,7540,7541,7648,7649,7654
*NSET, NSET=RightNodes, instance=Part-1-1
912,913,918,919,1019,1020,1032,1033,1199,1200,1481,1482,1487,1488,1588
1589,1595,1596,1669,1670,1681,1682,2117,2118,2129,2130,2215,2216,2221,2222
2336,2337,2341,2342,2600,2601,2605,2606,2901,2902,2999,3000,3015,3016,3026
3027,3210,3211,3338,3339,3429,3430,3544,3545,3664,3665,3747,3748,3751,3752
3934,3935,4275,4276,4286,4287,4360,4361,4409,4410,4496,4497,4510,4511,4822
4823,4973,4974,4988,4989,5055,5056,5203,5204,5287,5288,5334,5335,5507,5508
5680,5681,5712,5713,5726,5727,5855,5856,6103,6104,6109,6110,6318,6319,6322
6323,6415,6416,6419,6420,6478,6479,6488,6489,6876,6877,6887,6888,6982,6983
6986,6987,7095,7096,7106,7107,7356,7357,7525,7526,7538,7539,7646,7647,7652
*NSET, NSET=BottomNodes, instance=Part-1-1
838,839,882,883,939,940,985,986,1010,1011,1036,1037,1038,1039,1043
1044,1080,1081,1097,1098,1100,1101,1104,1105,1106,1107,1108,1109,1110,1111
1117,1118,1119,1120,1121,1122,1123,1124,1193,1194,1310,1311,1312,1313,1314
1315,1316,1317,1318,1319,1454,1455,1467,1468,1511,1512,1551,1552,1572,1573
1582,1583,1584,1585,1612,1613,1654,1655,1660,1661,1686,1687,1688,1689,1690
1691,1692,1693,1706,1707,1796,1797,1818,1819,1845,1846,1848,1849,1852,1853
1854,1855,1856,1857,1858,1859,1862,1863,1864,1865,1866,1867,1868,1869,2018
2019,2033,2034,2051,2052,2123,2124,2228,2229,2256,2257,2258,2259,2319,2320
2330,2331,2361,2362,2418,2419,2432,2433,2434,2435,2436,2437,2438,2439,2495
2496,2527,2528,2638,2639,2645,2646,2647,2648,2649,2650,2651,2652,2653,2654
2662,2663,2664,2665,2666,2667,2668,2669,2680,2681,2683,2684,2699,2700,2723
2724,2813,2814,2840,2841,2870,2871,2886,2887,2892,2893,2908,2909,2910,2911
2912,2913,2914,2915,2921,2922,2923,2924,2925,2926,2927,2928,2938,2939,2942
2943,2997,2998,3019,3020,3093,3094,3145,3146,3155,3156,3159,3160,3236,3237
3360,3361,3364,3365,3366,3367,3368,3369,3370,3371,3374,3375,3376,3377,3378
3379,3380,3381,3386,3387,3416,3417,3503,3504,3551,3552,3583,3584,3628,3629
3633,3634,3635,3636,3637,3638,3639,3640,3650,3651,3652,3653,3654,3655,3656
3657,3672,3673,3684,3685,3691,3692,3698,3699,3700,3701,3732,3733,3808,3809
3871,3872,3930,3931,4021,4022,4023,4024,4025,4026,4027,4028,4036,4037,4038
4039,4043,4044,4054,4055,4056,4057,4058,4059,4060,4061,4072,4073,4074,4075
** ... 23 like lines cut
*NSET, NSET=TopNodes, instance=Part-1-1
983,984,989,990,993,994,1006,1007,1008,1009,1027,1028,1029,1030,1045
1046,1047,1048,1051,1052,1053,1054,1071,1072,1083,1084,1093,1094,1095,1096
1102,1103,1112,1113,1125,1126,1127,1128,1129,1130,1132,1133,1280,1281,1320
1321,1322,1323,1324,1325,1539,1540,1546,1547,1553,1554,1574,1575,1579,1580
1615,1616,1633,1634,1657,1658,1679,1680,1694,1695,1698,1699,1701,1702,1708
1709,1710,1711,1740,1741,1784,1785,1810,1811,1824,1825,1830,1831,1842,1843
1850,1851,1860,1861,1870,1871,1872,1873,1874,1875,1904,1905,1906,1907,2212
2213,2247,2248,2254,2255,2272,2273,2322,2323,2358,2359,2383,2384,2398,2399
2401,2402,2409,2410,2428,2429,2440,2441,2442,2443,2515,2516,2522,2523,2530
2531,2566,2567,2572,2573,2577,2578,2584,2585,2592,2593,2634,2635,2640,2641
2643,2644,2655,2656,2670,2671,2672,2673,2677,2678,2730,2731,2765,2766,2781
2782,2795,2796,2807,2808,2868,2869,2874,2875,2878,2879,2883,2884,2894,2895
2905,2906,2916,2917,2929,2930,2931,2932,2934,2935,3010,3011,3039,3040,3063
3064,3121,3122,3135,3136,3257,3258,3261,3262,3266,3267,3270,3271,3357,3358
3362,3363,3372,3373,3382,3383,3384,3385,3388,3389,3396,3397,3413,3414,3492
3493,3536,3537,3569,3570,3576,3577,3587,3588,3590,3591,3616,3617,3618,3619
3631,3632,3641,3642,3658,3659,3660,3661,3662,3663,3676,3677,3678,3679,3713
3714,3716,3717,3741,3742,3773,3774,3796,3797,3810,3811,3836,3837,3838,3839
3859,3860,3923,3924,3944,3945,3946,3947,4010,4011,4012,4013,4029,4030,4031
4032,4047,4048,4052,4053,4062,4063,4067,4068,4091,4092,4093,4094,4095,4096
** ... 22 like lines cut
*NSET, NSET=BackNodes, instance=Part-1-1
1,2,3,4,5,6,7,8,9,10,11,12,13,14,15
16,17,18,19,20,21,22,23,24,25,26,27,28,29,30
31,32,33,34,35,36,37,38,39,40,41,42,43,44,45
46,47,48,49,50,51,52,53,54,55,56,57,58,59,60
61,62,63,64,65,66,67,68,69,70,71,72,73,74,75
76,77,78,79,80,81,82,83,84,85,86,87,88,89,90
91,92,93,94,95,96,97,98,99,100,101,102,103,104,105
106,107,108,109,110,111,112,113,114,115,116,117,118,119,120
121,122,123,124,125,126,127,128,129,130,131,132,133,134,135
136,137,138,139,140,141,142,143,144,145,146,147,148,149,150
151,152,153,154,155,156,157,158,159,160,161,162,163,164,165
166,167,168,169,170,171,172,173,174,175,176,177,178,179,180
181,182,183,184,185,186,187,188,189,190,191,192,193,194,195
196,197,198,199,200,201,202,203,204,205,206,207,208,209,210
211,212,213,214,215,216,217,218,219,220,221,222,223,224,225
226,227,228,229,230,231,232,233,234,235,236,237,238,239,240
241,242,243,244,245,246,247,248,249,250,251,252,253,254,255
256,257,258,259,260,261,262,263,264,265,266,267,268,269,270
271,272,273,274,275,276,277,278,279,280,281,282,283,284,285
286,287,288,289,290,291,292,293,294,295,296,297,298,299,300
** ... 22 like lines cut
*NSET, NSET=FrontNodes, instance=Part-1-1
7887,7888,7889,7890,7891,7892,7893,7894,7895,7896,7897,7898,7899,7900,7901
7902,7903,7904,7905,7906,7907,7908,7909,7910,7911,7912,7913,7914,7915,7916
7917,7918,7919,7920,7921,7922,7923,7924,7925,7926,7927,7928,7929,7930,7931
7932,7933,7934,7935,7936,7937,7938,7939,7940,7941,7942,7943,7944,7945,7946
7947,7948,7949,7950,7951,7952,7953,7954,7955,7956,7957,7958,7959,7960,7961
7962,7963,7964,7965,7966,7967,7968,7969,7970,7971,7972,7973,7974,7975,7976
7977,7978,7979,7980,7981,7982,7983,7984,7985,7986,7987,7988,7989,7990,7991
7992,7993,7994,7995,7996,7997,7998,7999,8000,8001,8002,8003,8004,8005,8006
8007,8008,8009,8010,8011,8012,8013,8014,8015,8016,8017,8018,8019,8020,8021
8022,8023,8024,8025,8026,8027,8028,8029,8030,8031,8032,8033,8034,8035,8036
8037,8038,8039,8040,8041,8042,8043,8044,8045,8046,8047,8048,8049,8050,8051
8052,8053,8054,8055,8056,8057,8058,8059,8060,8061,8062,8063,8064,8065,8066
8067,8068,8069,8070,8071,8072,8073,8074,8075,8076,8077,8078,8079,8080,8081
8082,8083,8084,8085,8086,8087,8088,8089,8090,8091,8092,8093,8094,8095,8096
8097,8098,8099,8100,8101,8102,8103,8104,8105,8106,8107,8108,8109,8110,8111
8112,8113,8114,8115,8116,8117,8118,8119,8120,8121,8122,8123,8124,8125,8126
8127,8128,8129,8130,8131,8132,8133,8134,8135,8136,8137,8138,8139,8140,8141
8142,8143,8144,8145,8146,8147,8148,8149,8150,8151,8152,8153,8154,8155,8156
8157,8158,8159,8160,8161,8162,8163,8164,8165,8166,8167,8168,8169,8170,8171
8172,8173,8174,8175,8176,8177,8178,8179,8180,8181,8182,8183,8184,8185,8186
** ... 23 like lines cut
*End Assembly
*Amplitude, name=Amp-1, time=TOTAL TIME
0., 0., 1.728e5, 1., 8.64e5, 1.
**
** MATERIALS
**
*Material, name=Material-1
*Depvar
4
1, EPSILONV1, EPSILONV1
2, EPSILONV2, EPSILONV2
3, Vc1, Vc1
4, Vc2, Vc2
*Density
0.,
*User Material, constants=1, type=THERMAL
0.,
**
** PREDEFINED FIELDS
**
** Name: Predefined Field-1   Type: Temperature
*Initial Conditions, type=TEMPERATURE
AllNodes, 0.0
**
** ----------------------------------------------------------------
**
** STEP: Step-1
**
*Step, name=Step-1, nlgeom=NO, inc=1000
*Heat Transfer, end=PERIOD
864, 8.64e5 
**
** BOUNDARY CONDITIONS
**
** Name: BC-1 Type: Temperature
*Boundary, amp=Amp-1
LeftNodes, 11, 11, 1.0
**Boundary
**RightNodes, 11, 11, 0.0
**
** OUTPUT REQUESTS
**
*Restart, write, frequency=0
**
** FIELD OUTPUT: F-Output-1
**
*Output, Field
*End Step
