** Output from COS2ABQ translator version 2011  
*HEADING
                                                                         
** PARTS
**
*PART,NAME=PART1
*NODE, NSET=NSET1
1,-.8126591891E-01,0.7820817083E-01,0.7000000030E-01
2,-.8126591891E-01,0.6017285958E-01,0.7000000030E-01
3,-.8126591891E-01,0.4213754833E-01,0.7000000030E-01
4,-.8126591891E-01,0.2410223708E-01,0.7000000030E-01
5,-.8126591891E-01,0.6066924427E-02,0.7000000030E-01
6,-.8126591891E-01,-.1196838729E-01,0.7000000030E-01
7,-.8126591891E-01,-.3000370041E-01,0.7000000030E-01
8,-.8126591891E-01,-.4803901166E-01,0.7000000030E-01
9,-.8126591891E-01,-.6607432663E-01,0.7000000030E-01
10,-.6334862113E-01,-.6607432663E-01,0.7000000030E-01
11,-.4543132335E-01,-.6607432663E-01,0.7000000030E-01
12,-.2751402371E-01,-.6607432663E-01,0.7000000030E-01
13,-.9596726857E-02,-.6607432663E-01,0.7000000030E-01
14,0.8320570923E-02,-.6607432663E-01,0.7000000030E-01
15,0.2623786777E-01,-.6607432663E-01,0.7000000030E-01
16,0.4415516555E-01,-.6607432663E-01,0.7000000030E-01
17,0.6207246333E-01,-.6607432663E-01,0.7000000030E-01
18,0.7998976111E-01,-.6607432663E-01,0.7000000030E-01
19,0.9790705889E-01,-.6607432663E-01,0.7000000030E-01
20,0.9790705889E-01,-.4803901166E-01,0.7000000030E-01
** ... 34127 like lines cut
*ELEMENT,TYPE=DC3D10,ELSET=PART1_EG1
1,1268,1269,1270,1271,24950,24937,24949,24948,24936,24922
2,1268,1272,1269,1273,24947,24935,24950,24946,24897,24934
3,1268,1270,1272,1274,24949,24921,24947,24945,24920,24896
4,1275,1276,1277,1278,24868,24855,24867,24866,24854,24841
5,1279,1280,1276,1281,24812,24852,24853,24811,24799,24851
6,1279,1282,1283,1276,24810,24774,24809,24853,24850,24849
7,1280,1284,1285,1279,24798,24755,24797,24812,24808,24807
8,1279,1283,1286,1278,24809,24762,24806,24827,24826,24825
9,1279,1276,1277,1281,24853,24855,24840,24811,24851,24839
10,1279,1286,1287,1277,24806,24734,24805,24840,24838,24837
11,1288,1289,1290,1291,24713,24697,24712,24711,24696,24683
12,1289,1292,1293,1294,24695,24656,24694,24693,24655,24644
13,1295,1294,1296,1289,24634,24633,24626,24692,24693,24691
14,1289,1290,1291,1297,24697,24683,24696,24690,24679,24666
15,1291,1297,1298,1289,24666,24606,24665,24696,24690,24689
16,1299,1291,1297,1298,24664,24666,24605,24596,24665,24606
17,1300,1301,1302,1303,24577,24561,24576,24575,24560,24547
18,1289,1304,1292,1297,24688,24652,24695,24690,24604,24653
19,1305,1306,1307,1308,24512,24498,24511,24510,24497,24487
20,1305,1309,1310,1307,24509,24461,24508,24511,24486,24485
** ... 23725 like lines cut
*SOLID SECTION,ELSET=PART1_EG1,MATERIAL=MAT1
*END PART
** ASSEMBLY
*ASSEMBLY, NAME=ASSEMBLY
*INSTANCE, NAME=PART1-1, PART=PART1
*END INSTANCE
*NSET,NSET=TEMP_NSET1,INSTANCE=PART1-1
451,452,453,454,455,456,457,458,459,460,461,462,463,464,465,466
467,468,469,470,471,472,473,474,475,476,477,478,479,480,481,482
483,484,485,486,487,488,489,490,491,492,493,494,495,496,497,498
499,500,501,502,503,504,505,506,507,508,509,510,511,512,513,514
515,516,517,518,519,520,521,522,523,524,525,526,527,528,529,530
531,532,533,534,535,536,537,538,539,540,541,542,543,544,545,546
547,548,549,550,551,552,553,554,555,556,557,558,559,560,561,562
563,564,565,566,567,568,569,570,571,572,573,574,575,576,577,578
579,580,581,582,583,584,585,586,587,588,589,590,591,592,593,594
595,596,597,598,599,600,601,602,603,604,605,606,607,608,609,610
611,612,613,614,615,616,617,618,619,620,621,622,623,624,625,626
627,628,629,630,631,632,633,634,635,636,637,638,639,640,641,642
643,644,645,646,647,648,649,650,651,652,653,654,655,656,657,658
659,660,661,662,663,664,665,666,667,668,669,670,671,672,673,674
675,676,677,678,679,680,681,682,683,684,685,686,687,688,689,690
691,692,693,694,695,696,697,698,699,700,701,702,703,704,705,706
707,708,709,710,711,712,713,714,715,716,717,718,719,720,721,722
723,724,725,726,727,728,729,730,731,732,733,734,735,736,737,738
739,740,741,742,743,744,745,746,747,748,749,750,751,752,753,754
755,756,757,758,759,760,761,762,763,764,765,766,767,768,769,770
** ... 147 like lines cut
*NSET,NSET=TEMP_NSET2,INSTANCE=PART1-1
1120,1121,1122,1123,1124,1125,1126,1127,1128,1129,1130,1131,1132,1133,1134,1135
1136,1137,1138,1139,1140,1141,1142,1143,1144,1145,1146,1147,1148,1149,1150,1151
1152,1153,1154,1155,1156,1157,1158,1159,1160,1161,1162,1163,1164,1165,1166,1167
1168,1169,1170,1171,1172,1173,1174,1175,1176,1177,1178,1179,1180,1181,1182,1183
1184,1185,1186,1187,1188,1189,1190,1191,1192,1193,1194,1195,1196,1197,1198,1199
1200,1201,1202,1203,1204,1205,1206,1207,1208,1209,1210,1211,1212,1213,1214,1215
1216,1217,1218,1219,1220,1221,1222,1223,1224,1225,1226,1227,1228,1229,1230,1231
1232,1233,1234,1235,1236,1237,1238,1239,1240,1241,1242,1243,1244,1245,1246,1247
1248,1249,1250,1251,1252,1253,1254,1255,1256,1257,1258,1259,1260,1261,1262,1263
1264,1265,1266,1267,24960,24965,24971,24976,24981,24984,24988,24994,24995,24996,25002,25003
25004,25009,25010,25011,25017,25018,25019,25025,25026,25027,25032,25033,25034,25040,25047,25048
25049,25054,25055,25056,25062,25063,25064,25071,25072,25073,25079,25080,25081,25087,25088,25089
25094,25101,25102,25103,25109,25110,25111,25119,25120,25121,25128,25129,25130,25135,25136,25137
25143,25144,25145,25150,25157,25158,25159,25165,25166,25167,25173,25174,25175,25181,25182,25183
25188,25189,25190,25196,25197,25198,25203,25209,25210,25211,25216,25217,25218,25225,25226,25227
25232,25233,25234,25239,25240,25241,25247,25248,25249,25258,25263,25270,25275,25281,25285,25290
25291,25297,25298,25299,25305,25306,25307,25313,25314,25315,25321,25322,25323,25329,25330,25331
25336,25337,25342,25343,25350,25351,25352,25358,25359,25360,25366,25367,25368,25374,25375,25376
25382,25383,25384,25390,25391,25396,25397,25404,25405,25406,25412,25413,25414,25420,25421,25422
25428,25429,25430,25436,25437,25438,25444,25445,25450,25451,25458,25459,25460,25466,25467,25468
** ... 17 like lines cut
*END ASSEMBLY
*MATERIAL,NAME=MAT1 
*ELASTIC
0.210000E+12,0.280000E+00,
*PLASTIC
0.62042E+09,0.0000,0.0000
*EXPANSION
0.130000E-04,
*DENSITY
0.770000E+04,
*CONDUCTIVITY
0.500000E+02,
*SPECIFIC HEAT
0.460000E+03,
** PHYSICAL CONSTANTS
*PHYSICAL CONSTANTS, ABSOLUTE ZERO=0.0000000, STEFAN BOLTZMANN=0.56703001E-07
*STEP,solver=DDM
LOAD CASE NUMBER 1
*HEAT TRANSFER,STEADY STATE
1.0000,0.0000,
*BOUNDARY,OP=NEW
TEMP_NSET1,11,11,0.200000E+01
*BOUNDARY,OP=NEW
TEMP_NSET2,11,11,0.230000E+02
*END STEP
