*Heading
** Job name: prism_100mmx500mm Model name: Model prism_100mmx500mm-edgeEle
*Preprint, echo=NO, model=NO, history=NO, contact=NO
**
** PARTS
**
*Part, name=Part-1
*USER ELEMENT,NODES=2,TYPE=U1,PROPERTIES=8,COORDINATES=3,VARIABLES=4
*NODE, NSET=NSET1
1,-0.025,-0.025,0.0
2,0.025,-0.025,0.0
3,0.025,0.025,0.0
4,-0.025,0.025,0.0
5,0.001,0.015,0.0
6,0.001,-0.01,0.0
7,0.011,0.001,0.0
8,-0.013,-0.001,0.0
9,0.0,-0.025,0.0
10,0.025,0.0,0.0
11,0.0,0.025,0.0
12,-0.025,0.0,0.0
13,-0.025,-0.025,0.01219512
14,0.025,-0.025,0.01219512
15,0.025,0.025,0.01219512
16,-0.025,0.025,0.01219512
17,0.001,0.015,0.01219512
18,0.001,-0.01,0.01219512
19,0.011,0.001,0.01219512
20,-0.013,-0.001,0.01219512
** ... 40 like lines cut
*ELEMENT, TYPE=U1, ELSET=UEL
1,1,13
2,2,14
3,3,15
4,4,16
5,5,17
6,6,18
7,7,19
8,8,20
9,9,21
10,10,22
11,11,23
12,12,24
13,13,49
14,14,50
15,15,51
16,16,52
17,17,53
18,18,54
19,19,55
20,20,56
** ... 66 like lines cut
*UEL PROPERTY, ELSET=UEL
1.000E-9,8.9E-10,2.15E+3,1.97E-14,6.1728E+4,0.5,0.0,17.28E+6
*End Part
**
**
** ASSEMBLY
**
*Assembly, name=Assembly
**
*Instance, name=Part-1-1, part=Part-1
**Section: Section-1
*Solid Section,elset=VISUALIZATION,material=Material-1
*End Instance
**
*End Assembly
*Amplitude, name=Amp-1, time=TOTAL TIME
0., 0., 1.728e5, 1., 8.64e5, 1.
**
** MATERIALS
**
*Material, name=Material-1
*Depvar
4
1, EPSILONV1, EPSILONV1
2, EPSILONV2, EPSILONV2
3, Vc1, Vc1
4, Vc2, Vc2
*Density
0.,
*User Material, constants=1, type=THERMAL
0.,
**
** PREDEFINED FIELDS
**
** Name: Predefined Field-1   Type: Temperature
*Initial Conditions, type=TEMPERATURE
AllNodes, 0.0
**
** ----------------------------------------------------------------
**
** STEP: Step-1
**
*Step, name=Step-1, nlgeom=NO, inc=1000
*Heat Transfer, end=PERIOD
864, 8.64e5 
**
** BOUNDARY CONDITIONS
**
** Name: BC-1 Type: Temperature
*Boundary, amp=Amp-1
LeftNodes, 11, 11, 1.0
**Boundary
**RightNodes, 11, 11, 0.0
**
** OUTPUT REQUESTS
**
*Restart, write, frequency=0
**
** FIELD OUTPUT: F-Output-1
**
*Output, Field
*End Step
